1
Properties=species:S:1:pos:R:3 id=0 AE=0.0 pbc="F F F"
H        0.00000000       0.00000000       0.00000000
15
Properties=species:S:1:pos:R:3 id=1 AE=-61.15351231123168 pbc="F F F"
C       -0.96516199       1.39582035      -0.26233884
C       -0.37304285       0.03598382      -0.27003415
C       -1.26494440      -1.14237754      -0.14408330
C        1.06955394      -0.11902526       0.07275254
O        1.79119556       0.94756579      -0.48933232
O        1.51886527      -1.36757699      -0.38985144
H       -1.25468198       1.70464862       0.75510891
H       -0.26901663       2.14233857      -0.63940250
H       -1.87625012       1.42490723      -0.86332150
H       -2.16447139      -1.01385211      -0.74941004
H       -1.60697091      -1.28098250       0.89428694
H       -0.76556680      -2.06152750      -0.44394197
H        1.20121861      -0.08737317       1.17391649
H        2.63561758       1.02398587      -0.04450195
H        2.32365610      -1.60253520       0.07261271
14
Properties=species:S:1:pos:R:3 id=2 AE=-59.214571140893895 pbc="F F F"
C       -0.90598116      -1.22871080      -0.71213409
C       -0.42756414      -0.09356369      -0.22348285
C       -1.19671161       1.18647570      -0.18601114
C        0.97591896      -0.00712034       0.32944220
O        1.70450176      -1.20768607       0.27433252
O        0.88129076       0.36895513       1.66637076
H       -1.90656844      -1.28187554      -1.12302202
H       -0.32001161      -2.13777411      -0.69641347
H       -2.17364997       1.07456133      -0.65393534
H       -0.65758975       1.98564622      -0.70349529
H       -1.33662056       1.51798661       0.84467334
H        1.52386030       0.76341504      -0.24250330
H        2.07085804      -1.30658038      -0.60542070
H        1.76826740       0.36627090       2.03159936
1
Properties=species:S:1:pos:R:3 id=3 AE=-8.999450074043125e-10 pbc="F F F"
C        0.00000000       0.00000000       0.00000000
10
Properties=species:S:1:pos:R:3 id=4 AE=-41.30264036945664 pbc="F F F"
C        0.23715754      -1.21841730       1.41069418
C        0.10707958      -0.38844041       0.41905354
C        1.31163626       0.44968347       0.06058625
C       -1.12939241      -0.28316657      -0.39359772
O       -2.30611681      -0.78937979       0.10682853
O       -2.07826913       0.65446948      -0.04408869
H        2.15389683       0.22679948       0.71409762
H        1.06730738       1.50797921       0.16297623
H        1.61410052       0.24717788      -0.96860960
H       -0.97739976      -0.40670542      -1.46794034
9
Properties=species:S:1:pos:R:3 id=5 AE=-34.32578379764618 pbc="F F F"
C        1.29087417       0.03851605      -0.06672536
C        0.09313885       0.72259542      -0.47182389
C       -1.13164010       0.00840652      -0.16434295
O       -1.40818998      -0.73774294       0.98316401
O       -2.09110360       0.53758828       0.66644977
H        2.21724945       0.38906253      -0.51689682
H        1.27721054      -1.04035150       0.12242345
H        1.24519879       0.52042096       0.94683912
H       -1.49273813      -0.43849534      -1.10592109
15
Properties=species:S:1:pos:R:3 id=6 AE=-65.84262401511114 pbc="F F F"
C       -2.44060073       0.35004356       0.05282472
C       -0.97690830       0.19662291      -0.14399612
C        0.11590020       1.04720077       0.03443947
C        1.09220367      -0.01100271      -0.46148187
C        2.15368371      -0.49771783       0.50530439
C       -0.17483613      -0.84466206      -0.59921486
H       -2.87481863       0.97105859      -0.73412346
H       -2.94453112      -0.61609695       0.03184422
H       -2.66160555       0.83262236       1.00611298
H        0.24252975       2.05934510       0.39389040
H        1.54671137       0.24205225      -1.42633750
H        1.71045885      -0.75317692       1.46975540
H        2.65989731      -1.38513594       0.11836446
H        2.91314513       0.26943271       0.67308658
H       -0.36122956      -1.86058587      -0.92046879
15
Properties=species:S:1:pos:R:3 id=7 AE=-65.11854917658093 pbc="F F F"
C       -2.16880391       0.72534015      -1.33983784
C       -1.33814371       0.13083198      -0.50628173
C       -1.84132132      -0.85991154       0.50489480
C        0.09313540       0.43674134      -0.56289026
C        1.02929709      -0.09677464       0.22315806
C        2.48697420       0.23708782       0.14047993
H       -2.10989027       1.44804773      -2.13918351
H       -2.91946114      -0.97713906       0.42071930
H       -1.60739427      -0.53244767       1.52064681
H       -1.37480553      -1.83692994       0.35824407
H        0.38913377       1.16154133      -1.31694588
H        0.73354594      -0.82031293       0.97578901
H        2.89701753      -0.00012158      -0.84401597
H        3.06593008      -0.31676715       0.87807331
H        2.66478613       1.30081417       0.31513661
